Version 4
SHEET 1 1404 680
WIRE 48 -336 -80 -336
WIRE 176 -336 48 -336
WIRE 432 -336 176 -336
WIRE 528 -336 432 -336
WIRE 624 -336 528 -336
WIRE 688 -336 624 -336
WIRE 784 -336 688 -336
WIRE 880 -336 784 -336
WIRE 688 -304 688 -336
WIRE 880 -288 880 -336
WIRE 784 -176 784 -336
WIRE 752 -160 304 -160
WIRE 880 -144 880 -208
WIRE 880 -144 816 -144
WIRE 1088 -144 880 -144
WIRE 1200 -144 1152 -144
WIRE 1360 -144 1296 -144
WIRE 688 -128 688 -224
WIRE 752 -128 688 -128
WIRE 1088 -128 944 -128
WIRE 1088 -96 880 -96
WIRE 1200 -96 1152 -96
WIRE 432 -80 432 -336
WIRE 944 -80 944 -128
WIRE 1088 -80 944 -80
WIRE 624 -64 624 -336
WIRE 688 -64 688 -128
WIRE 176 -48 176 -336
WIRE -80 0 -80 -336
WIRE 48 0 48 -336
WIRE 528 48 528 -336
WIRE 432 64 432 0
WIRE 496 64 432 64
WIRE 624 80 624 16
WIRE 624 80 560 80
WIRE 880 80 880 -96
WIRE 880 80 624 80
WIRE 176 96 176 32
WIRE 304 96 304 -160
WIRE 496 96 304 96
WIRE 48 144 48 80
WIRE 112 144 48 144
WIRE 432 160 432 64
WIRE 48 208 48 144
WIRE 176 256 176 192
WIRE 304 256 304 96
WIRE 304 256 176 256
WIRE 1360 304 1360 -144
WIRE 1360 304 368 304
WIRE 176 320 176 256
WIRE -80 416 -80 80
WIRE 48 416 48 288
WIRE 48 416 -80 416
WIRE 176 416 176 384
WIRE 176 416 48 416
WIRE 304 416 304 352
WIRE 304 416 176 416
WIRE 432 416 432 240
WIRE 432 416 304 416
WIRE 528 416 528 112
WIRE 528 416 432 416
WIRE 688 416 688 16
WIRE 688 416 528 416
WIRE 784 416 784 -112
WIRE 784 416 688 416
WIRE 944 416 944 -80
WIRE 944 416 784 416
WIRE 1200 416 1200 -64
WIRE 1200 416 944 416
WIRE 784 448 784 416
FLAG 1360 -144 gate
FLAG 784 448 0
SYMBOL pnp 112 192 M180
SYMATTR InstName Q1
SYMATTR Value 2N2907
SYMBOL res 32 -16 R0
SYMATTR InstName R2
SYMATTR Value 470
SYMBOL res 32 192 R0
SYMATTR InstName R3
SYMATTR Value 1k
SYMBOL res 160 -64 R0
SYMATTR InstName R4
SYMATTR Value 3k
SYMBOL cap 160 320 R0
SYMATTR InstName C1
SYMATTR Value 1u
SYMBOL npn 368 256 M0
SYMATTR InstName Q2
SYMATTR Value 2N2222
SYMBOL res 416 -96 R0
SYMATTR InstName R1
SYMATTR Value 10k
SYMBOL res 416 144 R0
SYMATTR InstName R5
SYMATTR Value 5.1k
SYMBOL res 672 -320 R0
SYMATTR InstName R6
SYMATTR Value 5.1k
SYMBOL res 672 -80 R0
SYMATTR InstName R7
SYMATTR Value 10k
SYMBOL Comparators\\LT1017 528 80 R0
SYMATTR InstName U1
SYMBOL Comparators\\LT1017 784 -144 R0
SYMATTR InstName U2
SYMBOL Digital\\srflop 1248 -192 R0
WINDOW 3 -40 28 Left 2
SYMATTR Value Vhigh=5
SYMATTR InstName A1
SYMBOL voltage -80 -16 R0
WINDOW 123 0 0 Left 0
WINDOW 39 0 0 Left 0
SYMATTR InstName V1
SYMATTR Value 5
SYMBOL Digital\\inv 1088 -208 R0
WINDOW 3 -6 -3 Left 2
SYMATTR InstName A2
SYMATTR Value Vhigh=5
SYMBOL Digital\\inv 1088 -160 R0
WINDOW 3 -11 120 Left 2
SYMATTR InstName A3
SYMATTR Value Vhigh=5
SYMBOL res 864 -304 R0
SYMATTR InstName R8
SYMATTR Value 10k
SYMBOL res 608 -80 R0
SYMATTR InstName R9
SYMATTR Value 10k
TEXT -112 448 Left 2 !.tran 0.1
TEXT 8 448 Left 2 !.ic V(gate)=5
